units metal
atom_style atomic

read_data amo_10k.data
Reading data file ...
  orthogonal box = (0.0000000 0.0000000 0.0000000) to (59.062900 59.062900 59.062900)
  reading atoms ...
  10000 atoms
reset_timestep 0

mass 1 28.09

pair_style mlip run_10k_10k/mlip.ini
pair_coeff * *

neighbor 2.0 bin # makes neighbour list beyond cutoff
neigh_modify every 1 delay 0 check yes # rebuilds the neighbour list

variable Nfreq equal 1000
variable Nprint equal 100
variable Nevery equal 100
variable Nrepeat equal 1000/100

variable nAtoms equal atoms

group silicon type 1
10000 atoms in group silicon

timestep 0.001 # integration timestep

variable p_bar_s equal 0*1.0e4
variable p_bar_f equal 20*1.0e4

fix removeMomentum all momentum 1 linear 1 1 1 # fix ID(removeMomentum) group-ID(all) momentum(zeros momentum) N(this many timesteps) linear dimensions(1 1 1)

compute T all temp # compute ID(T) group-ID(all) temp(temperature of group of atoms)
fix TempAve all ave/time 100 10 1000 c_T

variable P equal press # pressure
fix PressAve all ave/time 100 10 1000 v_P

variable v equal vol # volume
fix vAve all ave/time 100 10 1000 v_v

compute PE all pe pair # compute ID(PE) group-ID(all) pe(potential energy) pair
variable PE_Atom equal c_PE/v_nAtoms
fix PEAve_Atom all ave/time 100 10 1000 v_PE_Atom

compute MSD all msd

thermo_style custom step cpu temp f_TempAve press f_PressAve f_PEAve_Atom vol f_vAve c_MSD[4] # print thermodynamic data
thermo_modify flush yes # how thermodynamic information is computed and printed - flush: invokes a flush operation after thermodynamic info is written to the log file

thermo 1000

dump trj_movie all cfg 1000   run_10k_10k/NPT/dump_npt_Si_mtp.*.cfg mass type xs ys zs
dump_modify trj_movie element Si

restart 1000 run_10k_10k/restart_npt_Si_mtp.*
#
####################################################################################################
#
#
variable Nrun1 equal 50000
variable Nrun2 equal (50000+200000)
variable Nrun3 equal (250000+1000)

velocity all create 500 976151515

run 0
  update every 1 steps, delay 0 steps, check yes
Step CPU Temp f_TempAve Press f_PressAve f_PEAve_Atom Volume f_vAve c_MSD[4]
0            0          500            0    200.47885            0            0    206036.57            0            0
Loop time of 6.79493e-06 on 16 procs for 0 steps with 10000 atoms

fix integrate all npt temp 500 500 0.1 iso 0 0 1.0 nreset 1000
run 50000 upto
Step CPU Temp f_TempAve Press f_PressAve f_PEAve_Atom Volume f_vAve c_MSD[4]
0            0          500            0    200.47885            0            0    206036.57            0            0
Averages over the last 26 of 51 rows, steps 25000 to 50000:
Temp f_TempAve Press f_PressAve f_PEAve_Atom Volume f_vAve c_MSD[4]
499.977 500.165 -1.32241 5.62743 -162.927 206043 206043 0.127024
Loop time of 3032.18 on 16 procs for 50000 steps with 10000 atoms

unfix integrate

write_data run_10k_10k/post_thermalise_data_npt_Si_mtp
System init for write_data ...

fix integrate all npt temp 500 500 0.1 iso 0 200000 1.0 nreset 1000
run 250000 upto start 50000 stop 250000
Step CPU Temp f_TempAve Press f_PressAve f_PEAve_Atom Volume f_vAve c_MSD[4]
50000            0    500.94264    501.29041   -343.73412   -71.617303   -162.92689    206105.16    206058.44   0.13216861
Averages over the last 101 of 201 rows, steps 150000 to 250000:
Temp f_TempAve Press f_PressAve f_PEAve_Atom Volume f_vAve c_MSD[4]
499.747 500.483 149948 149558 -162.625 133734 133893 28.8384
Loop time of 15554.2 on 16 procs for 200000 steps with 10000 atoms

unfix integrate

write_data run_10k_10k/post_thermalise_data_npt_Si_mtp
System init for write_data ...

fix integrate all npt temp 500 500 0.1 iso 200000 200000 1.0 nreset 1000
run 251000 upto start 250000 stop 251000
Step CPU Temp f_TempAve Press f_PressAve f_PEAve_Atom Volume f_vAve c_MSD[4]
250000            0    503.84253    502.40334    199409.03     199165.5   -162.61094    119806.47    119814.21    43.236355
Loop time of 119.084 on 16 procs for 1000 steps with 10000 atoms

unfix integrate

write_data run_10k_10k/post_compress_data_npt_Si_mtp
System init for write_data ...
